ASN 16454886
 OpenBabel11222008332D

 18 19  0  0  1  0  0  0  0  0999 V2000
    0.6000    0.3460    0.0000 N   0  0  0  0  0  0  0  0  0  0  0  0
   -0.1170   -0.9000    0.0000 C   0  0  0  0  0  0  0  0  0  0  0  0
    0.6000   -0.4790    0.0000 C   0  0  3  0  0  0  0  0  0  0  0  0
   -0.8420   -0.4830    0.0000 C   0  0  0  0  0  0  0  0  0  0  0  0
    1.3170    0.7710    0.0000 C   0  0  0  0  0  0  0  0  0  0  0  0
   -0.1210    0.7620    0.0000 C   0  0  0  0  0  0  0  0  0  0  0  0
    1.3080    1.5960    0.0000 C   0  0  0  0  0  0  0  0  0  0  0  0
   -0.1210    1.5920    0.0000 C   0  0  0  0  0  0  0  0  0  0  0  0
    1.3080   -1.7170    0.0000 N   0  0  0  0  0  0  0  0  0  0  0  0
   -0.8420    0.3420    0.0000 O   0  0  0  0  0  0  0  0  0  0  0  0
    1.3080   -0.8880    0.0000 C   0  0  0  0  0  0  0  0  0  0  0  0
   -0.1170   -1.7250    0.0000 C   0  0  0  0  0  0  0  0  0  0  0  0
    0.5960    2.0040    0.0000 C   0  0  3  0  0  0  0  0  0  0  0  0
   -1.5540   -0.9000    0.0000 C   0  0  0  0  0  0  0  0  0  0  0  0
   -1.5580    0.7540    0.0000 C   0  0  0  0  0  0  0  0  0  0  0  0
    0.5960    2.8330    0.0000 C   0  0  0  0  0  0  0  0  0  0  0  0
   -0.8420   -2.1380    0.0000 C   0  0  0  0  0  0  0  0  0  0  0  0
   -1.5540   -1.7250    0.0000 C   0  0  0  0  0  0  0  0  0  0  0  0
  1  3  1  0  0  0  0
  1  5  1  0  0  0  0
  1  6  1  0  0  0  0
  2  3  1  0  0  0  0
  2  4  2  0  0  0  0
  2 12  1  0  0  0  0
  3 11  1  0  0  0  0
  4 10  1  0  0  0  0
  4 14  1  0  0  0  0
  5  7  1  0  0  0  0
  6  8  1  0  0  0  0
  7 13  1  0  0  0  0
  8 13  1  0  0  0  0
  9 11  1  0  0  0  0
 10 15  1  0  0  0  0
 12 17  2  0  0  0  0
 13 16  1  0  0  0  0
 14 18  2  0  0  0  0
 17 18  1  0  0  0  0
M  END
>  <IDNUMBER>
ASN 16454886

>  <LIQUID>
YES

$$$$
ASN 16454870
 OpenBabel11222008332D

 18 19  0  0  1  0  0  0  0  0999 V2000
    0.7580    0.6250    0.0000 N   0  0  0  0  0  0  0  0  0  0  0  0
    0.7580   -0.2040    0.0000 C   0  0  3  0  0  0  0  0  0  0  0  0
    0.0420   -0.6250    0.0000 C   0  0  0  0  0  0  0  0  0  0  0  0
    1.4750    1.0460    0.0000 C   0  0  0  0  0  0  0  0  0  0  0  0
    0.0380    1.0380    0.0000 C   0  0  0  0  0  0  0  0  0  0  0  0
   -0.6790   -0.2040    0.0000 C   0  0  0  0  0  0  0  0  0  0  0  0
    0.0420   -1.4540    0.0000 C   0  0  0  0  0  0  0  0  0  0  0  0
   -1.3960   -1.4540    0.0000 C   0  0  0  0  0  0  0  0  0  0  0  0
   -0.6790   -1.8670    0.0000 C   0  0  0  0  0  0  0  0  0  0  0  0
   -1.3960   -0.6250    0.0000 C   0  0  0  0  0  0  0  0  0  0  0  0
    0.0380    1.8670    0.0000 C   0  0  0  0  0  0  0  0  0  0  0  0
    1.4670    1.8710    0.0000 C   0  0  0  0  0  0  0  0  0  0  0  0
    1.4750   -1.4420    0.0000 N   0  0  0  0  0  0  0  0  0  0  0  0
    0.7540    2.2830    0.0000 C   0  0  3  0  0  0  0  0  0  0  0  0
   -2.1210   -1.8670    0.0000 O   0  0  0  0  0  0  0  0  0  0  0  0
    1.4750   -0.6120    0.0000 C   0  0  0  0  0  0  0  0  0  0  0  0
   -2.8420   -1.4540    0.0000 C   0  0  0  0  0  0  0  0  0  0  0  0
    0.7540    3.1080    0.0000 C   0  0  0  0  0  0  0  0  0  0  0  0
  1  2  1  0  0  0  0
  1  4  1  0  0  0  0
  1  5  1  0  0  0  0
  2  3  1  0  0  0  0
  2 16  1  0  0  0  0
  3  6  1  0  0  0  0
  3  7  2  0  0  0  0
  4 12  1  0  0  0  0
  5 11  1  0  0  0  0
  6 10  2  0  0  0  0
  7  9  1  0  0  0  0
  8  9  2  0  0  0  0
  8 10  1  0  0  0  0
  8 15  1  0  0  0  0
 11 14  1  0  0  0  0
 12 14  1  0  0  0  0
 13 16  1  0  0  0  0
 14 18  1  0  0  0  0
 15 17  1  0  0  0  0
M  END
>  <IDNUMBER>
ASN 16454870

>  <LIQUID>
YES

$$$$
ASN 13983556
 OpenBabel11222008332D

 19 21  0  0  0  0  0  0  0  0999 V2000
   -0.5830    0.8040    0.0000 C   0  0  0  0  0  0  0  0  0  0  0  0
   -3.1830    0.8040    0.0000 C   0  0  0  0  0  0  0  0  0  0  0  0
   -3.1830   -0.6880    0.0000 C   0  0  0  0  0  0  0  0  0  0  0  0
   -1.8830    1.5540    0.0000 C   0  0  0  0  0  0  0  0  0  0  0  0
   -1.8830   -1.4380    0.0000 C   0  0  0  0  0  0  0  0  0  0  0  0
    2.0130    0.8040    0.0000 N   0  0  0  0  0  0  0  0  0  0  0  0
   -0.5830   -0.6880    0.0000 C   0  0  0  0  0  0  0  0  0  0  0  0
    0.7120    1.5540    0.0000 C   0  0  0  0  0  0  0  0  0  0  0  0
   -4.2960   -1.6920    0.0000 O   0  0  0  0  0  0  0  0  0  0  0  0
   -2.1960   -2.9000    0.0000 O   0  0  0  0  0  0  0  0  0  0  0  0
   -3.6880   -3.0580    0.0000 C   0  0  0  0  0  0  0  0  0  0  0  0
    4.6120    0.8040    0.0000 C   0  0  0  0  0  0  0  0  0  0  0  0
    3.3120   -1.4380    0.0000 C   0  0  0  0  0  0  0  0  0  0  0  0
    3.3120    1.5540    0.0000 C   0  0  0  0  0  0  0  0  0  0  0  0
    2.0130   -0.6880    0.0000 C   0  0  0  0  0  0  0  0  0  0  0  0
    4.6120   -0.6880    0.0000 C   0  0  0  0  0  0  0  0  0  0  0  0
   -1.8830    3.0540    0.0000 O   0  0  0  0  0  0  0  0  0  0  0  0
    5.9120   -1.4380    0.0000 O   0  0  0  0  0  0  0  0  0  0  0  0
   -3.1830    3.8040    0.0000 C   0  0  0  0  0  0  0  0  0  0  0  0
  1  4  2  0  0  0  0
  1  7  1  0  0  0  0
  1  8  1  0  0  0  0
  2  3  2  0  0  0  0
  2  4  1  0  0  0  0
  3  5  1  0  0  0  0
  3  9  1  0  0  0  0
  4 17  1  0  0  0  0
  5  7  2  0  0  0  0
  5 10  1  0  0  0  0
  6  8  1  0  0  0  0
  6 14  1  0  0  0  0
  6 15  1  0  0  0  0
  9 11  1  0  0  0  0
 10 11  1  0  0  0  0
 12 14  1  0  0  0  0
 12 16  1  0  0  0  0
 13 15  1  0  0  0  0
 13 16  1  0  0  0  0
 16 18  1  0  0  0  0
 17 19  1  0  0  0  0
M  END
>  <IDNUMBER>
ASN 13983556

>  <SALTDATA>
C(OH)(CH2COOH)2COOH,HOOCC(OH)(CH2COOH)2

$$$$
ASN 10790639
 OpenBabel11222008332D

 20 21  0  0  0  0  0  0  0  0999 V2000
    3.6500   -4.9790    0.0000 C   0  0  0  0  0  0  0  0  0  0  0  0
    4.4790   -4.9790    0.0000 C   0  0  0  0  0  0  0  0  0  0  0  0
    3.2380   -4.2670    0.0000 C   0  0  0  0  0  0  0  0  0  0  0  0
    5.7290   -2.8290    0.0000 N   0  0  0  0  0  0  0  0  0  0  0  0
    4.4790   -3.5500    0.0000 C   0  0  0  0  0  0  0  0  0  0  0  0
    3.6500   -3.5500    0.0000 C   0  0  0  0  0  0  0  0  0  0  0  0
    4.8920   -4.2670    0.0000 C   0  0  0  0  0  0  0  0  0  0  0  0
    4.9000   -2.8290    0.0000 C   0  0  0  0  0  0  0  0  0  0  0  0
    6.9670   -3.5500    0.0000 C   0  0  0  0  0  0  0  0  0  0  0  0
    6.9670   -2.1170    0.0000 C   0  0  0  0  0  0  0  0  0  0  0  0
    6.1420   -3.5500    0.0000 C   0  0  0  0  0  0  0  0  0  0  0  0
    6.1420   -2.1170    0.0000 C   0  0  0  0  0  0  0  0  0  0  0  0
    7.3790   -2.8290    0.0000 C   0  0  0  0  0  0  0  0  0  0  0  0
    3.2250   -5.7000    0.0000 O   0  0  0  0  0  0  0  0  0  0  0  0
    2.4120   -4.2670    0.0000 O   0  0  0  0  0  0  0  0  0  0  0  0
    4.9040   -5.7000    0.0000 O   0  0  0  0  0  0  0  0  0  0  0  0
    8.2040   -2.8250    0.0000 N   0  0  0  0  0  0  0  0  0  0  0  0
    3.6290   -6.4250    0.0000 C   0  0  0  0  0  0  0  0  0  0  0  0
    4.4920   -6.4250    0.0000 C   0  0  0  0  0  0  0  0  0  0  0  0
    2.0000   -3.5540    0.0000 C   0  0  0  0  0  0  0  0  0  0  0  0
  1  2  1  0  0  0  0
  1  3  2  0  0  0  0
  1 14  1  0  0  0  0
  2  7  2  0  0  0  0
  2 16  1  0  0  0  0
  3  6  1  0  0  0  0
  3 15  1  0  0  0  0
  4  8  1  0  0  0  0
  4 11  1  0  0  0  0
  4 12  1  0  0  0  0
  5  6  2  0  0  0  0
  5  7  1  0  0  0  0
  5  8  1  0  0  0  0
  9 11  1  0  0  0  0
  9 13  1  0  0  0  0
 10 12  1  0  0  0  0
 10 13  1  0  0  0  0
 13 17  1  0  0  0  0
 14 18  1  0  0  0  0
 15 20  1  0  0  0  0
 16 19  1  0  0  0  0
M  END
>  <IDNUMBER>
ASN 10790639

$$$$
ASN 10396488
 OpenBabel11222008332D

 21 23  0  0  0  0  0  0  0  0999 V2000
    4.1790    0.2210    0.0000 C   0  0  0  0  0  0  0  0  0  0  0  0
   -1.9830    1.4000    0.0000 N   0  0  0  0  0  0  0  0  0  0  0  0
    2.8080    0.2210    0.0000 N   0  0  0  0  0  0  0  0  0  0  0  0
    4.8620    1.4000    0.0000 O   0  0  0  0  0  0  0  0  0  0  0  0
    4.8620   -0.9710    0.0000 C   0  0  0  0  0  0  0  0  0  0  0  0
   -3.3540    1.4000    0.0000 C   0  0  0  0  0  0  0  0  0  0  0  0
   -1.3000    2.5830    0.0000 C   0  0  0  0  0  0  0  0  0  0  0  0
   -1.3000    0.2210    0.0000 C   0  0  0  0  0  0  0  0  0  0  0  0
    2.1250    1.4000    0.0000 C   0  0  0  0  0  0  0  0  0  0  0  0
    0.7540    1.4000    0.0000 C   0  0  0  0  0  0  0  0  0  0  0  0
   -4.0420    0.2210    0.0000 C   0  0  0  0  0  0  0  0  0  0  0  0
    0.0710    2.5830    0.0000 C   0  0  0  0  0  0  0  0  0  0  0  0
    0.0710    0.2210    0.0000 C   0  0  0  0  0  0  0  0  0  0  0  0
    5.8250   -2.6460    0.0000 C   0  0  0  0  0  0  0  0  0  0  0  0
    4.5000   -2.2830    0.0000 C   0  0  0  0  0  0  0  0  0  0  0  0
    6.1790   -1.3170    0.0000 C   0  0  0  0  0  0  0  0  0  0  0  0
   -3.3540   -0.9710    0.0000 C   0  0  0  0  0  0  0  0  0  0  0  0
   -5.4080    0.2210    0.0000 C   0  0  0  0  0  0  0  0  0  0  0  0
   -6.0920   -0.9710    0.0000 C   0  0  0  0  0  0  0  0  0  0  0  0
   -4.0420   -2.1500    0.0000 C   0  0  0  0  0  0  0  0  0  0  0  0
   -5.4080   -2.1500    0.0000 C   0  0  0  0  0  0  0  0  0  0  0  0
  1  3  1  0  0  0  0
  1  4  2  0  0  0  0
  1  5  1  0  0  0  0
  2  6  1  0  0  0  0
  2  7  1  0  0  0  0
  2  8  1  0  0  0  0
  3  9  1  0  0  0  0
  5 15  1  0  0  0  0
  5 16  1  0  0  0  0
  6 11  1  0  0  0  0
  7 12  1  0  0  0  0
  8 13  1  0  0  0  0
  9 10  1  0  0  0  0
 10 12  1  0  0  0  0
 10 13  1  0  0  0  0
 11 17  1  0  0  0  0
 11 18  2  0  0  0  0
 14 15  1  0  0  0  0
 14 16  1  0  0  0  0
 17 20  2  0  0  0  0
 18 19  1  0  0  0  0
 19 21  2  0  0  0  0
 20 21  1  0  0  0  0
M  END
>  <IDNUMBER>
ASN 10396488

$$$$
ASN 02749307
 OpenBabel11222008332D

 20 22  0  0  0  0  0  0  0  0999 V2000
    1.9120    0.5000    0.0000 N   0  0  0  0  0  0  0  0  0  0  0  0
    2.3330   -0.1210    0.0000 N   0  0  0  0  0  0  0  0  0  0  0  0
    3.0330    0.0790    0.0000 N   0  0  0  0  0  0  0  0  0  0  0  0
    3.0750    0.8000    0.0000 N   0  0  0  0  0  0  0  0  0  0  0  0
   -1.0250    0.5000    0.0000 C   0  0  0  0  0  0  0  0  0  0  0  0
   -1.3880   -0.1620    0.0000 N   0  0  0  0  0  0  0  0  0  0  0  0
    2.3750    1.0790    0.0000 C   0  0  0  0  0  0  0  0  0  0  0  0
    1.1960    0.5000    0.0000 C   0  0  0  0  0  0  0  0  0  0  0  0
   -0.2880    0.5000    0.0000 C   0  0  0  0  0  0  0  0  0  0  0  0
   -1.4040    1.1380    0.0000 O   0  0  0  0  0  0  0  0  0  0  0  0
   -1.0250   -0.8000    0.0000 C   0  0  0  0  0  0  0  0  0  0  0  0
   -2.1250   -0.1620    0.0000 C   0  0  0  0  0  0  0  0  0  0  0  0
    0.8120   -0.1420    0.0000 C   0  0  0  0  0  0  0  0  0  0  0  0
    0.8120    1.1380    0.0000 C   0  0  0  0  0  0  0  0  0  0  0  0
    0.0960   -0.1420    0.0000 C   0  0  0  0  0  0  0  0  0  0  0  0
    0.0960    1.1380    0.0000 C   0  0  0  0  0  0  0  0  0  0  0  0
   -1.3880   -1.4420    0.0000 C   0  0  0  0  0  0  0  0  0  0  0  0
   -2.5040   -0.8000    0.0000 C   0  0  0  0  0  0  0  0  0  0  0  0
   -2.1250   -1.4420    0.0000 C   0  0  0  0  0  0  0  0  0  0  0  0
   -2.4880   -2.0830    0.0000 C   0  0  0  0  0  0  0  0  0  0  0  0
  1  2  1  0  0  0  0
  1  7  1  0  0  0  0
  1  8  1  0  0  0  0
  2  3  2  0  0  0  0
  3  4  1  0  0  0  0
  4  7  2  0  0  0  0
  5  6  1  0  0  0  0
  5  9  1  0  0  0  0
  5 10  2  0  0  0  0
  6 11  1  0  0  0  0
  6 12  1  0  0  0  0
  8 13  2  0  0  0  0
  8 14  1  0  0  0  0
  9 15  2  0  0  0  0
  9 16  1  0  0  0  0
 11 17  1  0  0  0  0
 12 18  1  0  0  0  0
 13 15  1  0  0  0  0
 14 16  2  0  0  0  0
 17 19  1  0  0  0  0
 18 19  1  0  0  0  0
 19 20  1  0  0  0  0
M  END
>  <IDNUMBER>
ASN 02749307

$$$$
ART 15342099
 OpenBabel11222008332D

 21 25  0  0  1  0  0  0  0  0999 V2000
   -0.0830    0.5380    0.0000 N   0  0  0  0  0  0  0  0  0  0  0  0
   -0.0880   -0.2620    0.0000 C   0  0  2  0  0  0  0  0  0  0  0  0
    0.6250    0.9330    0.0000 C   0  0  0  0  0  0  0  0  0  0  0  0
   -1.2620    0.8460    0.0000 C   0  0  0  0  0  0  0  0  0  0  0  0
    0.6040   -0.6790    0.0000 N   0  0  0  0  0  0  0  0  0  0  0  0
    1.3080    0.5210    0.0000 C   0  0  0  0  0  0  0  0  0  0  0  0
   -1.9580    0.0580    0.0000 C   0  0  3  0  0  0  0  0  0  0  0  0
   -1.4580   -0.6830    0.0000 C   0  0  3  0  0  0  0  0  0  0  0  0
   -0.7880   -0.0210    0.0000 C   0  0  0  0  0  0  0  0  0  0  0  0
   -0.8250   -0.7960    0.0000 C   0  0  3  0  0  0  0  0  0  0  0  0
    1.3000   -0.2790    0.0000 C   0  0  0  0  0  0  0  0  0  0  0  0
   -1.3380   -0.0250    0.0000 C   0  0  0  0  0  0  0  0  0  0  0  0
    0.6170    1.7380    0.0000 O   0  0  0  0  0  0  0  0  0  0  0  0
   -1.4960    1.6120    0.0000 O   0  0  0  0  0  0  0  0  0  0  0  0
   -1.5170   -1.3040    0.0000 C   0  0  0  0  0  0  0  0  0  0  0  0
   -0.8420   -1.5790    0.0000 C   0  0  0  0  0  0  0  0  0  0  0  0
    2.0040    0.9170    0.0000 C   0  0  0  0  0  0  0  0  0  0  0  0
   -2.2170   -1.0170    0.0000 C   0  0  0  0  0  0  0  0  0  0  0  0
    1.9920   -0.6830    0.0000 C   0  0  0  0  0  0  0  0  0  0  0  0
    2.6920    0.5170    0.0000 C   0  0  0  0  0  0  0  0  0  0  0  0
    2.6880   -0.2880    0.0000 C   0  0  0  0  0  0  0  0  0  0  0  0
  1  3  1  0  0  0  0
  1  4  1  0  0  0  0
  2  1  1  0  0  0  0
  2  5  1  0  0  0  0
  2  9  1  6  0  0  0
  2 10  1  0  0  0  0
  3  6  1  0  0  0  0
  3 13  2  0  0  0  0
  4  7  1  0  0  0  0
  4 14  2  0  0  0  0
  5 11  1  0  0  0  0
  6 11  1  0  0  0  0
  6 17  2  0  0  0  0
  7  8  1  0  0  0  0
  7 12  1  0  0  0  0
  8  9  1  0  0  0  0
  8 15  1  0  0  0  0
  8 18  1  0  0  0  0
 10 12  1  0  0  0  0
 10 16  1  0  0  0  0
 11 19  2  0  0  0  0
 15 16  1  0  0  0  0
 17 20  1  0  0  0  0
 19 21  1  0  0  0  0
 20 21  2  0  0  0  0
M  END
>  <IDNUMBER>
ART 15342099

$$$$
ART 13984963
 OpenBabel11222008332D

 21 23  0  0  0  0  0  0  0  0999 V2000
   -2.8540   -0.6120    0.0000 N   0  0  0  0  0  0  0  0  0  0  0  0
   -4.0330   -0.0830    0.0000 N   0  0  0  0  0  0  0  0  0  0  0  0
   -2.9880   -1.8920    0.0000 C   0  0  0  0  0  0  0  0  0  0  0  0
   -4.2460   -2.1580    0.0000 C   0  0  0  0  0  0  0  0  0  0  0  0
   -1.7330    0.0330    0.0000 C   0  0  0  0  0  0  0  0  0  0  0  0
   -4.8960   -1.0420    0.0000 C   0  0  0  0  0  0  0  0  0  0  0  0
    2.7380    0.0330    0.0000 N   0  0  0  0  0  0  0  0  0  0  0  0
   -0.6120   -0.6120    0.0000 C   0  0  0  0  0  0  0  0  0  0  0  0
    0.5040    0.0330    0.0000 C   0  0  0  0  0  0  0  0  0  0  0  0
    1.6170   -0.6120    0.0000 C   0  0  0  0  0  0  0  0  0  0  0  0
    3.8580    1.9670    0.0000 C   0  0  0  0  0  0  0  0  0  0  0  0
    4.9790    0.0330    0.0000 C   0  0  0  0  0  0  0  0  0  0  0  0
    2.7380    1.3210    0.0000 C   0  0  0  0  0  0  0  0  0  0  0  0
    3.8580   -0.6120    0.0000 C   0  0  0  0  0  0  0  0  0  0  0  0
    4.9790    1.3210    0.0000 C   0  0  0  0  0  0  0  0  0  0  0  0
   -2.0290   -2.7580    0.0000 C   0  0  0  0  0  0  0  0  0  0  0  0
   -1.7330    1.3210    0.0000 C   0  0  0  0  0  0  0  0  0  0  0  0
    6.1000    1.9670    0.0000 O   0  0  0  0  0  0  0  0  0  0  0  0
   -0.6120    1.9670    0.0000 C   0  0  0  0  0  0  0  0  0  0  0  0
   -6.1750   -0.9080    0.0000 C   0  0  0  0  0  0  0  0  0  0  0  0
    0.5040    1.3210    0.0000 C   0  0  0  0  0  0  0  0  0  0  0  0
  1  2  1  0  0  0  0
  1  3  1  0  0  0  0
  1  5  1  0  0  0  0
  2  6  2  0  0  0  0
  3  4  2  0  0  0  0
  3 16  1  0  0  0  0
  4  6  1  0  0  0  0
  5  8  2  0  0  0  0
  5 17  1  0  0  0  0
  6 20  1  0  0  0  0
  7 10  1  0  0  0  0
  7 13  1  0  0  0  0
  7 14  1  0  0  0  0
  8  9  1  0  0  0  0
  9 10  1  0  0  0  0
  9 21  2  0  0  0  0
 11 13  1  0  0  0  0
 11 15  1  0  0  0  0
 12 14  1  0  0  0  0
 12 15  1  0  0  0  0
 15 18  1  0  0  0  0
 17 19  2  0  0  0  0
 19 21  1  0  0  0  0
M  END
>  <IDNUMBER>
ART 13984963

>  <SALTDATA>
C(OH)(CH2COOH)2COOH,HOOCC(OH)(CH2COOH)2

$$$$
ART 13967891
 OpenBabel11222008332D

 20 22  0  0  1  0  0  0  0  0999 V2000
    2.3580    0.0620    0.0000 C   0  0  2  0  0  0  0  0  0  0  0  0
    1.1080    0.7880    0.0000 C   0  0  1  0  0  0  0  0  0  0  0  0
   -0.1420   -1.3790    0.0000 N   0  0  0  0  0  0  0  0  0  0  0  0
    3.6080    0.7880    0.0000 N   0  0  0  0  0  0  0  0  0  0  0  0
    2.3580   -1.3790    0.0000 C   0  0  0  0  0  0  0  0  0  0  0  0
   -0.1420    0.0620    0.0000 C   0  0  0  0  0  0  0  0  0  0  0  0
    1.1080   -2.1000    0.0000 C   0  0  0  0  0  0  0  0  0  0  0  0
   -1.3920   -2.1000    0.0000 C   0  0  0  0  0  0  0  0  0  0  0  0
    1.1080    2.2290    0.0000 O   0  0  0  0  0  0  0  0  0  0  0  0
   -2.6420   -1.3790    0.0000 C   0  0  0  0  0  0  0  0  0  0  0  0
   -5.1420    0.0620    0.0000 C   0  0  0  0  0  0  0  0  0  0  0  0
   -6.3830    0.7880    0.0000 F   0  0  0  0  0  0  0  0  0  0  0  0
   -3.8960    0.7880    0.0000 C   0  0  0  0  0  0  0  0  0  0  0  0
   -5.1420   -1.3790    0.0000 C   0  0  0  0  0  0  0  0  0  0  0  0
   -2.6420    0.0620    0.0000 C   0  0  0  0  0  0  0  0  0  0  0  0
   -3.8960   -2.1000    0.0000 C   0  0  0  0  0  0  0  0  0  0  0  0
    3.7540    2.2210    0.0000 C   0  0  0  0  0  0  0  0  0  0  0  0
    4.9290    0.2040    0.0000 C   0  0  0  0  0  0  0  0  0  0  0  0
    5.8880    1.2710    0.0000 C   0  0  0  0  0  0  0  0  0  0  0  0
    5.1670    2.5120    0.0000 C   0  0  0  0  0  0  0  0  0  0  0  0
  1  2  1  0  0  0  0
  1  4  1  6  0  0  0
  1  5  1  0  0  0  0
  2  6  1  0  0  0  0
  2  9  1  1  0  0  0
  3  6  1  0  0  0  0
  3  7  1  0  0  0  0
  3  8  1  0  0  0  0
  4 17  1  0  0  0  0
  4 18  1  0  0  0  0
  5  7  1  0  0  0  0
  8 10  1  0  0  0  0
 10 15  2  0  0  0  0
 10 16  1  0  0  0  0
 11 12  1  0  0  0  0
 11 13  2  0  0  0  0
 11 14  1  0  0  0  0
 13 15  1  0  0  0  0
 14 16  2  0  0  0  0
 17 20  1  0  0  0  0
 18 19  1  0  0  0  0
 19 20  1  0  0  0  0
M  END
>  <IDNUMBER>
ART 13967891

>  <SALTDATA>
HCl

$$$$
AEM 10028511
 OpenBabel11222008332D

 22 24  0  0  0  0  0  0  0  0999 V2000
    7.2040   -6.7290    0.0000 C   0  0  0  0  0  0  0  0  0  0  0  0
    6.3790   -6.7290    0.0000 N   0  0  0  0  0  0  0  0  0  0  0  0
    7.6170   -7.4420    0.0000 N   0  0  0  0  0  0  0  0  0  0  0  0
    5.9670   -7.4420    0.0000 C   0  0  0  0  0  0  0  0  0  0  0  0
    6.3880   -8.1540    0.0000 C   0  0  0  0  0  0  0  0  0  0  0  0
    7.2120   -8.1620    0.0000 C   0  0  0  0  0  0  0  0  0  0  0  0
   10.0920   -6.0040    0.0000 N   0  0  0  0  0  0  0  0  0  0  0  0
    7.6170   -6.0120    0.0000 N   0  0  0  0  0  0  0  0  0  0  0  0
    5.1420   -7.4500    0.0000 O   0  0  0  0  0  0  0  0  0  0  0  0
   10.9170   -6.0040    0.0000 C   0  0  0  0  0  0  0  0  0  0  0  0
    8.4420   -6.0040    0.0000 C   0  0  0  0  0  0  0  0  0  0  0  0
    8.8540   -5.2920    0.0000 C   0  0  0  0  0  0  0  0  0  0  0  0
    8.8540   -6.7250    0.0000 C   0  0  0  0  0  0  0  0  0  0  0  0
    9.6790   -5.2920    0.0000 C   0  0  0  0  0  0  0  0  0  0  0  0
    9.6880   -6.7250    0.0000 C   0  0  0  0  0  0  0  0  0  0  0  0
   11.3290   -5.2790    0.0000 C   0  0  0  0  0  0  0  0  0  0  0  0
    7.6250   -8.8750    0.0000 C   0  0  0  0  0  0  0  0  0  0  0  0
   12.1540   -5.2880    0.0000 C   0  0  0  0  0  0  0  0  0  0  0  0
   10.9170   -4.5670    0.0000 C   0  0  0  0  0  0  0  0  0  0  0  0
   12.5620   -4.5670    0.0000 C   0  0  0  0  0  0  0  0  0  0  0  0
   11.3250   -3.8540    0.0000 C   0  0  0  0  0  0  0  0  0  0  0  0
   12.1500   -3.8540    0.0000 C   0  0  0  0  0  0  0  0  0  0  0  0
  1  2  1  0  0  0  0
  1  3  2  0  0  0  0
  1  8  1  0  0  0  0
  2  4  1  0  0  0  0
  3  6  1  0  0  0  0
  4  5  1  0  0  0  0
  4  9  2  0  0  0  0
  5  6  2  0  0  0  0
  6 17  1  0  0  0  0
  7 10  1  0  0  0  0
  7 14  1  0  0  0  0
  7 15  1  0  0  0  0
  8 11  1  0  0  0  0
 10 16  1  0  0  0  0
 11 12  1  0  0  0  0
 11 13  1  0  0  0  0
 12 14  1  0  0  0  0
 13 15  1  0  0  0  0
 16 18  2  0  0  0  0
 16 19  1  0  0  0  0
 18 20  1  0  0  0  0
 19 21  2  0  0  0  0
 20 22  2  0  0  0  0
 21 22  1  0  0  0  0
M  END
>  <IDNUMBER>
AEM 10028511

$$$$
